Version 4
SHEET 1 1192 692
WIRE 288 -32 208 -32
WIRE 448 -32 368 -32
WIRE 384 16 272 16
WIRE 384 32 384 16
WIRE 272 96 272 16
WIRE -80 144 -512 144
WIRE 48 144 -16 144
WIRE 208 144 208 -32
WIRE 208 144 128 144
WIRE 240 144 208 144
WIRE 448 176 448 -32
WIRE 448 176 384 176
WIRE 528 176 448 176
WIRE 592 176 528 176
WIRE 704 176 672 176
WIRE 736 176 704 176
WIRE 864 176 816 176
WIRE 1120 176 864 176
WIRE 240 208 192 208
WIRE -512 224 -512 144
WIRE 528 224 528 176
WIRE 704 224 704 176
WIRE 864 224 864 176
WIRE 1120 224 1120 176
WIRE -512 368 -512 304
WIRE 528 384 528 288
WIRE 704 384 704 288
WIRE 864 384 864 288
WIRE 1120 384 1120 304
WIRE 192 400 192 208
WIRE 192 400 16 400
WIRE 272 400 272 256
WIRE 320 400 320 256
WIRE -64 432 -224 432
WIRE -64 464 -64 432
WIRE 16 464 16 400
WIRE -224 512 -224 432
WIRE -64 576 -64 544
WIRE 16 576 16 544
WIRE 16 576 -64 576
WIRE -64 592 -64 576
WIRE -224 672 -224 592
FLAG -512 368 0
FLAG -64 672 0
FLAG -224 672 0
FLAG 320 400 0
FLAG 384 112 0
FLAG 272 400 0
FLAG 1120 384 0
FLAG 704 384 0
FLAG 528 384 0
FLAG 864 384 0
SYMBOL Opamps\\LT6230 272 176 R0
SYMATTR InstName U1
SYMBOL res 144 128 R90
WINDOW 0 0 56 VBottom 2
WINDOW 3 32 56 VTop 2
SYMATTR InstName R2
SYMATTR Value 1k
SYMBOL polcap -16 128 R90
WINDOW 0 0 32 VBottom 2
WINDOW 3 32 32 VTop 2
SYMATTR InstName C1
SYMATTR Value 47µ
SYMATTR Description Capacitor
SYMATTR Type cap
SYMBOL res -48 560 R180
WINDOW 0 36 76 Left 2
WINDOW 3 36 40 Left 2
SYMATTR InstName R3
SYMATTR Value 51k
SYMBOL res -48 688 R180
WINDOW 0 36 76 Left 2
WINDOW 3 36 40 Left 2
SYMATTR InstName R4
SYMATTR Value 51k
SYMBOL voltage -512 208 R0
WINDOW 123 24 124 Left 2
WINDOW 39 24 44 Left 2
SYMATTR Value2 AC .001
SYMATTR SpiceLine Rser=50
SYMATTR InstName V1
SYMATTR Value ""
SYMBOL res 0 448 R0
SYMATTR InstName R6
SYMATTR Value 1k
SYMBOL voltage -224 496 R0
WINDOW 123 0 0 Left 2
WINDOW 39 0 0 Left 2
SYMATTR InstName V2
SYMATTR Value 3.3V
SYMBOL res 384 -48 R90
WINDOW 0 0 56 VBottom 2
WINDOW 3 32 56 VTop 2
SYMATTR InstName R7
SYMATTR Value 10k
SYMBOL voltage 384 16 R0
WINDOW 123 0 0 Left 2
WINDOW 39 0 0 Left 2
SYMATTR InstName V3
SYMATTR Value 3.3V
SYMBOL res 1104 208 R0
SYMATTR InstName R10
SYMATTR Value 400
SYMBOL cap 688 224 R0
SYMATTR InstName C3
SYMATTR Value 1.6nF
SYMBOL ind 576 160 M90
WINDOW 0 5 56 VBottom 2
WINDOW 3 32 56 VTop 2
SYMATTR InstName L2
SYMATTR Value 220µH
SYMBOL ind 720 160 M90
WINDOW 0 5 56 VBottom 2
WINDOW 3 32 56 VTop 2
SYMATTR InstName L3
SYMATTR Value 220µH
SYMATTR SpiceLine Cpar=0
SYMBOL cap 512 224 R0
SYMATTR InstName C2
SYMATTR Value 470pF
SYMBOL cap 848 224 R0
SYMATTR InstName C4
SYMATTR Value 470pf
TEXT -448 272 Left 2 !.ac oct 200 100 10Meg
TEXT -432 96 Left 2 !;op
TEXT -496 0 Left 2 ;mr_radar IF amplifier and filter simulation
TEXT -496 32 Left 2 ;fifth order butterworth filter, 500 KHz cutoff frequency
